grid_simulations/tests/Result_no_control/output_voltage_11.csv
# Result_no_control/output_voltage_11.csv run at 2000-01-01 11:00:00 EST on 963 nodes
node_name,voltA_mag,voltA_angle,voltB_mag,voltB_angle,voltC_mag,voltC_angle
SourceBus,6668.395609,0.000000,6668.395609,4.188790,6668.395609,2.094395
Bus1,249.642607,-0.546156,249.537221,3.645462,250.286614,1.554958
Bus2,249.348113,-0.545828,249.275294,3.645420,250.162903,1.555075
Bus3,249.317242,-0.545793,249.247835,3.645416,250.149934,1.555087
Bus4,249.288320,-0.545761,249.222110,3.645412,250.137784,1.555098
Bus5,249.263104,-0.545733,249.199681,3.645408,250.127191,1.555108
Bus6,249.223380,-0.545688,249.164347,3.645403,250.110502,1.555124
Bus7,246.519523,-0.542628,246.758295,3.645016,248.974256,1.556202
Bus8,246.398476,-0.542489,246.650532,3.644999,248.923372,1.556250
Bus9,246.297730,-0.542374,246.560839,3.644984,248.881021,1.556291
Bus10,246.209320,-0.542273,246.482127,3.644971,248.843855,1.556326
Bus11,246.143351,-0.542197,246.423393,3.644962,248.816122,1.556353
Bus12,246.081424,-0.542126,246.368255,3.644953,248.790088,1.556378
Bus13,246.043345,-0.542082,246.334351,3.644947,248.774079,1.556393
Bus14,245.948547,-0.541973,246.249945,3.644934,248.734225,1.556431
Bus15,245.180715,-0.541087,245.566184,3.644822,248.411389,1.556740
Bus16,245.180715,-0.541087,245.566184,3.644822,248.411389,1.556740
Bus17,244.249848,-0.540005,244.737011,3.644686,248.019927,1.557115
Bus18,245.180715,-0.541087,245.566184,3.644822,248.411389,1.556740
Bus19,244.185809,-0.539930,244.679959,3.644676,247.992993,1.557141
Bus20,245.180715,-0.541087,245.566184,3.644822,248.411389,1.556740
Bus21,244.113902,-0.539846,244.615896,3.644666,247.962750,1.557170
Bus22,245.180715,-0.541087,245.566184,3.644822,248.411389,1.556740
Bus23,243.996828,-0.539709,244.511589,3.644648,247.913508,1.557217
Bus24,245.180715,-0.541087,245.566184,3.644822,248.411389,1.556740
Bus25,243.783852,-0.539460,244.321830,3.644617,247.823927,1.557304
Bus26,245.180715,-0.541087,245.566184,3.644822,248.411389,1.556740
Bus27,243.464904,-0.539137,244.322811,3.644598,247.827422,1.557316
Bus28,241.487004,-0.536653,241.906981,3.644894,246.577748,1.557932
Bus29,245.180715,-0.541087,245.566184,3.644822,248.411389,1.556740
Bus30,243.420983,-0.539092,244.322946,3.644596,247.827903,1.557318
Bus31,243.422104,-0.539094,244.322943,3.644596,247.827891,1.557318
Bus32,240.875871,-0.535897,241.264113,3.644969,246.246011,1.558101
Bus33,245.180715,-0.541087,245.566184,3.644822,248.411389,1.556740
Bus34,243.320401,-0.538990,244.323256,3.644590,247.829005,1.557322
Bus35,243.420655,-0.539092,244.322947,3.644596,247.827906,1.557318
Bus36,240.879312,-0.535884,240.951561,3.645289,246.246918,1.558082
Bus37,238.927511,-0.533966,239.621982,3.644911,245.214654,1.559155
Bus38,245.180715,-0.541087,245.566184,3.644822,248.411389,1.556740
Bus39,243.418571,-0.539090,244.322954,3.644596,247.827929,1.557318
Bus40,240.879432,-0.535883,240.940644,3.645300,246.246950,1.558082
Bus41,240.879855,-0.535882,240.902270,3.645340,246.247061,1.558079
Bus42,237.576009,-0.532608,238.482452,3.644871,244.499123,1.559893
Bus43,238.927511,-0.533966,239.621982,3.644911,245.214654,1.559155
Bus44,245.180715,-0.541087,245.566184,3.644822,248.411389,1.556740
Bus45,243.415898,-0.539087,244.322962,3.644595,247.827959,1.557318
Bus46,240.879487,-0.535883,240.935724,3.645305,246.246964,1.558081
Bus47,240.881161,-0.535877,240.783670,3.645461,246.247405,1.558072
Bus48,236.555030,-0.531572,237.621359,3.644840,243.958515,1.560453
Bus49,238.927511,-0.533966,239.621982,3.644911,245.214654,1.559155
Bus50,245.180715,-0.541087,245.566184,3.644822,248.411389,1.556740
Bus51,243.409389,-0.539081,244.322982,3.644595,247.828030,1.557318
Bus52,240.879544,-0.535883,240.930509,3.645311,246.246979,1.558081
Bus53,236.407847,-0.531422,237.497206,3.644835,243.880577,1.560533
Bus54,236.555030,-0.531572,237.621359,3.644840,243.958515,1.560453
Bus55,238.927511,-0.533966,239.621982,3.644911,245.214654,1.559155
Bus56,245.180715,-0.541087,245.566184,3.644822,248.411389,1.556740
Bus57,243.403817,-0.539075,244.322999,3.644595,247.828091,1.557319
Bus58,240.879599,-0.535883,240.925542,3.645316,246.246993,1.558081
Bus59,235.741211,-0.530739,236.934830,3.644815,243.527556,1.560901
Bus60,236.555030,-0.531572,237.621359,3.644840,243.958515,1.560453
Bus61,238.927511,-0.533966,239.621982,3.644911,245.214654,1.559155
Bus62,245.180715,-0.541087,245.566184,3.644822,248.411389,1.556740
Bus63,243.377103,-0.539048,244.323081,3.644593,247.828384,1.557320
Bus64,240.879631,-0.535883,240.922568,3.645319,246.247002,1.558081
Bus65,235.627209,-0.530621,236.818277,3.644850,243.448655,1.560949
Bus66,235.279713,-0.530256,236.936306,3.644787,243.532588,1.560919
Bus67,236.555030,-0.531572,237.621359,3.644840,243.958515,1.560453
Bus68,238.927511,-0.533966,239.621982,3.644911,245.214654,1.559155
Bus69,245.180715,-0.541087,245.566184,3.644822,248.411389,1.556740
Bus70,243.282680,-0.538952,244.323372,3.644588,247.829418,1.557323
Bus71,240.879696,-0.535883,240.916732,3.645325,246.247019,1.558080
Bus72,234.280560,-0.529212,235.441272,3.645275,242.516508,1.561516
Bus73,235.166933,-0.530137,236.936667,3.644780,243.533818,1.560924
Bus74,235.166933,-0.530137,236.936667,3.644780,243.533818,1.560924
Bus75,236.555030,-0.531572,237.621359,3.644840,243.958515,1.560453
Bus76,238.927511,-0.533966,239.621982,3.644911,245.214654,1.559155
Bus77,245.180715,-0.541087,245.566184,3.644822,248.411389,1.556740
Bus78,240.880021,-0.535881,240.887156,3.645355,246.247105,1.558078
Bus79,233.811263,-0.528717,234.961293,3.645424,242.191604,1.561714
Bus80,236.555030,-0.531572,237.621359,3.644840,243.958515,1.560453
Bus81,238.927511,-0.533966,239.621982,3.644911,245.214654,1.559155
Bus82,245.180715,-0.541087,245.566184,3.644822,248.411389,1.556740
Bus83,240.881248,-0.535877,240.775710,3.645469,246.247428,1.558072
Bus84,233.708854,-0.528609,234.856547,3.645457,242.120700,1.561758
Bus85,236.555030,-0.531572,237.621359,3.644840,243.958515,1.560453
Bus86,238.927511,-0.533966,239.621982,3.644911,245.214654,1.559155
Bus87,245.180715,-0.541087,245.566184,3.644822,248.411389,1.556740
Bus88,233.501195,-0.528389,234.644139,3.645523,241.976921,1.561846
Bus89,236.555030,-0.531572,237.621359,3.644840,243.958515,1.560453
Bus90,238.927511,-0.533966,239.621982,3.644911,245.214654,1.559155
Bus91,245.180715,-0.541087,245.566184,3.644822,248.411389,1.556740
Bus92,233.305372,-0.528182,234.443829,3.645586,241.841332,1.561929
Bus93,238.927511,-0.533966,239.621982,3.644911,245.214654,1.559155
Bus94,245.180715,-0.541087,245.566184,3.644822,248.411389,1.556740
Bus95,233.191557,-0.528061,234.327401,3.645622,241.762523,1.561978
Bus96,238.927511,-0.533966,239.621982,3.644911,245.214654,1.559155
Bus97,245.180715,-0.541087,245.566184,3.644822,248.411389,1.556740
Bus98,233.116393,-0.527981,234.250510,3.645647,241.710476,1.562010
Bus99,238.927511,-0.533966,239.621982,3.644911,245.214654,1.559155
Bus100,245.180715,-0.541087,245.566184,3.644822,248.411389,1.556740
Bus101,233.012615,-0.527870,234.144345,3.645680,241.638614,1.562054
Bus102,238.927511,-0.533966,239.621982,3.644911,245.214654,1.559155
Bus103,245.180715,-0.541087,245.566184,3.644822,248.411389,1.556740
Bus104,233.012783,-0.527871,234.141392,3.645679,241.636902,1.562048
Bus105,232.942827,-0.527805,234.088983,3.645678,241.599826,1.562099
Bus106,238.927511,-0.533966,239.621982,3.644911,245.214654,1.559155
Bus107,233.012986,-0.527871,234.137820,3.645679,241.634830,1.562041
Bus108,232.903255,-0.527768,234.057591,3.645678,241.577832,1.562124
Bus109,238.927511,-0.533966,239.621982,3.644911,245.214654,1.559155
Bus110,233.013222,-0.527871,234.133680,3.645678,241.632430,1.562032
Bus111,231.342088,-0.526296,232.818923,3.645647,240.710111,1.563130
Bus112,238.927511,-0.533966,239.621982,3.644911,245.214654,1.559155
Bus113,233.013582,-0.527871,234.127368,3.645677,241.628769,1.562020
Bus114,231.185721,-0.526148,232.694836,3.645643,240.623198,1.563231
Bus115,238.927511,-0.533966,239.621982,3.644911,245.214654,1.559155
Bus116,233.014044,-0.527871,234.119252,3.645676,241.624063,1.562003
Bus117,231.184814,-0.526154,232.688401,3.645643,240.616121,1.563217
Bus118,230.709711,-0.525862,232.369051,3.645365,240.421152,1.563451
Bus119,238.927511,-0.533966,239.621982,3.644911,245.214654,1.559155
Bus120,233.014376,-0.527871,234.113426,3.645675,241.620684,1.561992
Bus121,231.184814,-0.526154,232.688401,3.645643,240.616121,1.563217
Bus122,231.184372,-0.526158,232.685267,3.645643,240.612675,1.563210
Bus123,229.851338,-0.525342,231.781585,3.644860,240.056820,1.563848
Bus124,238.927511,-0.533966,239.621982,3.644911,245.214654,1.559155
Bus125,233.014844,-0.527871,234.105193,3.645673,241.615910,1.561975
Bus126,231.184814,-0.526154,232.688401,3.645643,240.616121,1.563217
Bus127,231.182298,-0.526172,232.670549,3.645643,240.596489,1.563177
Bus128,229.465348,-0.525108,231.517422,3.644632,239.892992,1.564027
Bus129,238.927511,-0.533966,239.621982,3.644911,245.214654,1.559155
Bus130,233.015352,-0.527872,234.096287,3.645672,241.610745,1.561957
Bus131,231.184814,-0.526154,232.688401,3.645643,240.616121,1.563217
Bus132,231.073495,-0.526056,232.670903,3.645636,240.597674,1.563182
Bus133,231.208678,-0.526203,232.625215,3.645700,240.540657,1.563044
Bus134,229.350507,-0.525038,231.438828,3.644564,239.844250,1.564081
Bus135,238.927511,-0.533966,239.621982,3.644911,245.214654,1.559155
Bus136,233.015830,-0.527872,234.087887,3.645671,241.605874,1.561941
Bus137,231.184814,-0.526154,232.688401,3.645643,240.616121,1.563217
Bus138,231.064125,-0.526046,232.670933,3.645636,240.597776,1.563182
Bus139,231.228304,-0.526226,232.591490,3.645742,240.499123,1.562945
Bus140,229.220877,-0.524959,231.350113,3.644487,239.789231,1.564141
Bus141,238.927511,-0.533966,239.621982,3.644911,245.214654,1.559155
Bus142,233.016617,-0.527872,234.074076,3.645668,241.597866,1.561913
Bus143,231.184814,-0.526154,232.688401,3.645643,240.616121,1.563217
Bus144,231.054931,-0.526037,232.670963,3.645635,240.597876,1.563182
Bus145,231.241447,-0.526241,232.568905,3.645771,240.471310,1.562879
Bus146,229.098963,-0.524884,231.266679,3.644415,239.737487,1.564198
Bus147,238.927511,-0.533966,239.621982,3.644911,245.214654,1.559155
Bus148,233.020356,-0.527874,234.008408,3.645658,241.559790,1.561781
Bus149,231.184814,-0.526154,232.688401,3.645643,240.616121,1.563217
Bus150,231.047507,-0.526029,232.670987,3.645635,240.597956,1.563183
Bus151,231.244571,-0.526297,232.578322,3.645810,240.440386,1.562868
Bus152,231.244674,-0.526229,232.277919,3.646079,240.472138,1.562861
Bus153,228.956715,-0.524797,231.169329,3.644331,239.677113,1.564264
Bus154,238.927511,-0.533966,239.621982,3.644911,245.214654,1.559155
Bus155,233.021171,-0.527874,233.994103,3.645655,241.551496,1.561753
Bus156,231.184814,-0.526154,232.688401,3.645643,240.616121,1.563217
Bus157,231.036365,-0.526017,232.671023,3.645634,240.598078,1.563183
Bus158,231.252860,-0.526444,232.603296,3.645916,240.358376,1.562839
Bus159,231.244870,-0.526228,232.260209,3.646098,240.472189,1.562860
Bus160,228.915784,-0.524772,231.141318,3.644306,239.659741,1.564283
Bus161,238.927511,-0.533966,239.621982,3.644911,245.214654,1.559155
Bus162,233.024833,-0.527861,233.663626,3.646004,241.552441,1.561733
Bus163,233.016915,-0.527905,233.963483,3.645655,241.517811,1.561685
Bus164,231.184814,-0.526154,232.688401,3.645643,240.616121,1.563217
Bus165,231.022933,-0.526002,232.671067,3.645633,240.598224,1.563184
Bus166,231.255740,-0.526495,232.611972,3.645953,240.329890,1.562829
Bus167,231.245050,-0.526228,232.244029,3.646115,240.472235,1.562859
Bus168,228.683251,-0.524630,230.982182,3.644168,239.561049,1.564391
Bus169,238.927511,-0.533966,239.621982,3.644911,245.214654,1.559155
Bus170,233.025524,-0.527858,233.601196,3.646070,241.552620,1.561729
Bus171,233.011265,-0.527946,233.922832,3.645655,241.473091,1.561594
Bus172,231.184814,-0.526154,232.688401,3.645643,240.616121,1.563217
Bus173,231.012784,-0.525991,232.671100,3.645633,240.598334,1.563184
Bus174,231.255740,-0.526495,232.611972,3.645953,240.329890,1.562829
Bus175,231.256418,-0.526510,232.614466,3.645963,240.099277,1.563065
Bus176,231.245124,-0.526227,232.237308,3.646122,240.472254,1.562859
Bus177,228.551917,-0.524549,230.892303,3.644090,239.505309,1.564452
Bus178,233.026951,-0.527853,233.472395,3.646206,241.552988,1.561722
Bus179,233.009281,-0.527935,233.912878,3.645642,241.475750,1.561583
Bus180,233.011655,-0.527954,233.924264,3.645660,241.340754,1.561729
Bus181,231.184814,-0.526154,232.688401,3.645643,240.616121,1.563217
Bus182,231.001041,-0.525979,232.671138,3.645632,240.598462,1.563185
Bus183,231.255740,-0.526495,232.611972,3.645953,240.329890,1.562829
Bus184,231.256492,-0.526511,232.614736,3.645964,240.074372,1.563091
Bus185,231.245285,-0.526227,232.222821,3.646137,240.472295,1.562858
Bus186,228.454426,-0.524489,230.825584,3.644032,239.463931,1.564498
Bus187,233.001474,-0.527890,233.873706,3.645590,241.486213,1.561537
Bus188,233.013268,-0.527988,233.930194,3.645683,240.793085,1.562289
Bus189,231.184814,-0.526154,232.688401,3.645643,240.616121,1.563217
Bus190,230.989999,-0.525967,232.671174,3.645631,240.598582,1.563185
Bus191,231.255740,-0.526495,232.611972,3.645953,240.329890,1.562829
Bus192,231.255740,-0.526495,232.611972,3.645953,240.329890,1.562829
Bus193,231.256562,-0.526513,232.614997,3.645965,240.050282,1.563116
Bus194,231.245694,-0.526225,232.185922,3.646177,240.472401,1.562856
Bus195,228.366777,-0.524435,230.765601,3.643980,239.426732,1.564538
Bus196,232.987536,-0.527811,233.803769,3.645497,241.504895,1.561455
Bus197,233.013426,-0.527991,233.930773,3.645686,240.739573,1.562344
Bus198,233.013359,-0.527990,233.930528,3.645685,240.762153,1.562321
Bus199,231.184814,-0.526154,232.688401,3.645643,240.616121,1.563217
Bus200,230.978119,-0.525954,232.671213,3.645631,240.598712,1.563185
...
SourceBus_1,6645.140557,-0.005112,6647.710659,4.184756,6652.633659,2.089488
LOAD1,243.320401,-0.538990,244.323256,3.644590,247.829005,1.557322
LOAD2,240.881161,-0.535877,240.783670,3.645461,246.247405,1.558072
LOAD3,243.282680,-0.538952,244.323372,3.644588,247.829418,1.557323
LOAD4,235.166933,-0.530137,236.936667,3.644780,243.533818,1.560924
LOAD5,235.166933,-0.530137,236.936667,3.644780,243.533818,1.560924
LOAD6,240.881248,-0.535877,240.775710,3.645469,246.247428,1.558072
LOAD7,233.026951,-0.527853,233.472395,3.646206,241.552988,1.561722
LOAD8,233.013824,-0.527999,233.932238,3.645691,240.604286,1.562483
LOAD9,232.465776,-0.527257,233.805455,3.645465,241.510572,1.561476
LOAD10,233.018237,-0.527691,232.819475,3.646445,241.514036,1.561287
LOAD11,233.018237,-0.527691,232.819475,3.646445,241.514036,1.561287
LOAD12,233.013931,-0.528002,233.932630,3.645693,240.568081,1.562520
LOAD13,231.250647,-0.526207,231.739456,3.646652,240.473673,1.562829
LOAD14,230.773799,-0.525736,232.671877,3.645618,240.600935,1.563194
LOAD15,231.249991,-0.526209,231.798534,3.646589,240.473504,1.562833
LOAD16,231.257992,-0.526543,232.620259,3.645986,239.563919,1.563616
LOAD17,231.257686,-0.526537,232.619133,3.645981,239.667964,1.563509
LOAD18,224.661202,-0.520232,228.260585,3.640987,238.407502,1.566520
LOAD19,227.039260,-0.523646,229.819681,3.643273,238.410859,1.565543
LOAD20,224.869924,-0.521016,228.894184,3.641653,238.733070,1.565949
LOAD21,227.095680,-0.523453,230.184706,3.643446,239.070184,1.564953
LOAD22,224.772615,-0.520909,228.894513,3.641647,238.734127,1.565953
LOAD23,224.145800,-0.519007,227.360370,3.640833,238.913609,1.566148
LOAD24,226.106116,-0.523105,228.903845,3.643179,237.575019,1.565872
LOAD25,219.271715,-0.510569,225.482052,3.634857,239.907783,1.567952
LOAD26,224.431709,-0.520611,226.185647,3.643191,237.258350,1.564335
LOAD27,225.752964,-0.522862,228.425342,3.643315,237.076572,1.565940
LOAD28,225.753307,-0.522869,228.426602,3.643320,236.959564,1.566062
LOAD29,218.932173,-0.509108,224.639049,3.634973,239.906333,1.567267
LOAD30,219.305615,-0.510608,225.481929,3.634859,239.907418,1.567951
LOAD31,218.940535,-0.509118,224.639018,3.634974,239.906243,1.567266
LOAD32,223.986817,-0.520215,226.089085,3.642630,236.688404,1.564821
LOAD33,220.149183,-0.509609,223.789461,3.636611,239.172503,1.566217
LOAD34,220.452215,-0.512740,226.124452,3.635912,239.713334,1.567757
LOAD35,220.222131,-0.509269,223.054310,3.637376,239.600506,1.565393
LOAD36,220.091193,-0.509431,222.923713,3.637282,239.715257,1.565889
LOAD37,220.091420,-0.509430,222.903702,3.637304,239.715310,1.565888
LOAD38,223.442935,-0.519496,225.213357,3.642575,236.972950,1.564470
LOAD39,223.020741,-0.519130,225.101504,3.642133,236.055586,1.565065
LOAD40,222.732341,-0.518258,224.115783,3.642380,236.676562,1.563995
LOAD41,222.045222,-0.515875,222.014794,3.643459,236.352826,1.562873
LOAD42,223.020813,-0.519131,225.101774,3.642134,236.030497,1.565091
LOAD43,221.615623,-0.515615,222.463151,3.642796,235.162569,1.564023
LOAD44,224.272894,-0.520408,225.855111,3.643283,237.192204,1.564305
LOAD45,222.044882,-0.515876,222.045054,3.643426,236.352741,1.562875
LOAD46,221.622652,-0.517541,225.515799,3.641862,236.955160,1.564652
LOAD47,221.615508,-0.515613,222.462707,3.642794,235.203694,1.563980
LOAD48,221.693016,-0.517620,225.515558,3.641866,236.954399,1.564649
LOAD49,221.553899,-0.517465,225.516035,3.641858,236.955904,1.564654
LOAD50,221.269723,-0.512762,220.177957,3.643613,236.379416,1.561558
LOAD51,221.337599,-0.516142,223.921899,3.641554,236.640919,1.563955
LOAD52,220.192929,-0.512660,221.708020,3.641961,236.320946,1.562715
LOAD53,221.269723,-0.512762,220.119165,3.643681,236.379416,1.561558
LOAD54,221.146331,-0.515929,223.922559,3.641541,236.642983,1.563963
LOAD55,220.173888,-0.512602,221.711189,3.641902,236.330704,1.562753
